
.. DO NOT EDIT.
.. THIS FILE WAS AUTOMATICALLY GENERATED BY SPHINX-GALLERY.
.. TO MAKE CHANGES, EDIT THE SOURCE PYTHON FILE:
.. "examples/extraction/database/single_seismogram.py"
.. LINE NUMBERS ARE GIVEN BELOW.

.. only:: html

    .. note::
        :class: sphx-glr-download-link-note

        :ref:`Go to the end <sphx_glr_download_examples_extraction_database_single_seismogram.py>`
        to download the full example code

.. rst-class:: sphx-glr-example-title

.. _sphx_glr_examples_extraction_database_single_seismogram.py:


Single Seismogram
=================

The tutorial will go over the reading of a three component seismogram from a
station file in the database by loading one that is included in the Github repo.
At the end, we plot the seismograms using built-in plotting tools.

Loading all modules
-------------------

.. GENERATED FROM PYTHON SOURCE LINES 14-26

.. code-block:: default



    # External
    import matplotlib.pyplot as plt
    from obspy import read, read_inventory

    # Internal
    from gf3d.source import CMTSOLUTION
    from gf3d.seismograms import GFManager
    from gf3d.process import process_stream
    from gf3d.plot.seismogram import plotseismogram








.. GENERATED FROM PYTHON SOURCE LINES 29-30

Getting a CMTSOLUTION and load data

.. GENERATED FROM PYTHON SOURCE LINES 30-38

.. code-block:: default


    # CMTSOLUTION
    cmt = CMTSOLUTION.read('../../DATA/single_element_read/CMTSOLUTION')
    print(cmt)

    raw = read("../../DATA/single_element_read/traces/*.sac")
    inv = read_inventory("../../DATA/single_element_read/station.xml")





.. rst-class:: sphx-glr-script-out

 .. code-block:: none

     PDE 2015  9 16 22 54 32.90 -31.5700  -71.6700  22.4 0.0 8.3 NEAR COAST OF CENTRAL CH
    event name:  201509162254A
    time shift:     49.9800
    half duration:  33.4000
    latitude:      -31.1300
    longitude:     -72.0900
    depth:          17.3500
    Mrr:       1.950000e+28
    Mtt:      -4.360000e+26
    Mpp:      -1.910000e+28
    Mrt:       7.420000e+27
    Mrp:      -2.480000e+28
    Mtp:       9.420000e+26





.. GENERATED FROM PYTHON SOURCE LINES 39-42

Note that the data has been downloaded from IRIS previously, but it has not
been processed. Now, we can query the database for synthetic seismograms
corresponding to the observed ones.

.. GENERATED FROM PYTHON SOURCE LINES 44-45

Loading a single station file from the database

.. GENERATED FROM PYTHON SOURCE LINES 45-57

.. code-block:: default


    # Load subset
    gfm = GFManager(['../../DATA/single_element_read/DB/II/BFO/II.BFO.h5'])
    gfm.load_header_variables()

    # You will have to load a subset of elements first (just one here for storage reasons)
    gfm.get_elements(cmt.latitude, cmt.longitude, cmt.depth, 100, NGLL=5)

    # Finally you can read the seismograms.
    rp = gfm.get_seismograms(cmt)









.. GENERATED FROM PYTHON SOURCE LINES 58-60

Then, we select the station in question and process both observed and
synthetics seismograms for a band-pass of [40-300].

.. GENERATED FROM PYTHON SOURCE LINES 60-68

.. code-block:: default


    network = 'II'
    station = 'BFO'
    obs = process_stream(
        raw.select(network=network, station=station), inv=inv, cmt=cmt, duration=3600)
    syn = process_stream(
        rp.select(network=network, station=station), cmt=cmt, duration=3600)








.. GENERATED FROM PYTHON SOURCE LINES 69-70

Set plot limits and plot seismogram

.. GENERATED FROM PYTHON SOURCE LINES 70-82

.. code-block:: default


    starttimeoffset = 500.0
    endtimeoffset = 0.0
    duration = 1000.0
    limits = \
        syn[0].stats.starttime + starttimeoffset, \
        syn[0].stats.starttime + starttimeoffset + duration + endtimeoffset

    plotseismogram(obs, syn, cmt, limits=limits)

    plt.show()




.. image-sg:: /examples/extraction/database/images/sphx_glr_single_seismogram_001.svg
   :alt: single seismogram
   :srcset: /examples/extraction/database/images/sphx_glr_single_seismogram_001.svg
   :class: sphx-glr-single-img





.. GENERATED FROM PYTHON SOURCE LINES 83-84

The seismograms are offset for clarity so that they are easy to read.


.. rst-class:: sphx-glr-timing

   **Total running time of the script:** ( 0 minutes  0.466 seconds)


.. _sphx_glr_download_examples_extraction_database_single_seismogram.py:

.. only:: html

  .. container:: sphx-glr-footer sphx-glr-footer-example




    .. container:: sphx-glr-download sphx-glr-download-python

      :download:`Download Python source code: single_seismogram.py <single_seismogram.py>`

    .. container:: sphx-glr-download sphx-glr-download-jupyter

      :download:`Download Jupyter notebook: single_seismogram.ipynb <single_seismogram.ipynb>`


.. only:: html

 .. rst-class:: sphx-glr-signature

    `Gallery generated by Sphinx-Gallery <https://sphinx-gallery.github.io>`_
