
.. DO NOT EDIT.
.. THIS FILE WAS AUTOMATICALLY GENERATED BY SPHINX-GALLERY.
.. TO MAKE CHANGES, EDIT THE SOURCE PYTHON FILE:
.. "examples/extraction/subset/single_seismogram.py"
.. LINE NUMBERS ARE GIVEN BELOW.

.. only:: html

    .. note::
        :class: sphx-glr-download-link-note

        :ref:`Go to the end <sphx_glr_download_examples_extraction_subset_single_seismogram.py>`
        to download the full example code

.. rst-class:: sphx-glr-example-title

.. _sphx_glr_examples_extraction_subset_single_seismogram.py:


Single Seismogram
=================

The tutorial will go over the reading of a subset file by loading one that is
included in the Github repository. At the end, we plot the waveforms using
built-in plotting tools.

Loading all modules
-------------------

.. GENERATED FROM PYTHON SOURCE LINES 14-25

.. code-block:: default


    # External
    import matplotlib.pyplot as plt
    from obspy import read, read_inventory

    # Internal
    from gf3d.source import CMTSOLUTION
    from gf3d.seismograms import GFManager
    from gf3d.process import process_stream
    from gf3d.plot.seismogram import plotseismogram








.. GENERATED FROM PYTHON SOURCE LINES 28-29

Getting a CMTSOLUTION

.. GENERATED FROM PYTHON SOURCE LINES 29-34

.. code-block:: default


    # CMTSOLUTION
    cmt = CMTSOLUTION.read('../../DATA/single_element_read/CMTSOLUTION')
    print(cmt)





.. rst-class:: sphx-glr-script-out

 .. code-block:: none

     PDE 2015  9 16 22 54 32.90 -31.5700  -71.6700  22.4 0.0 8.3 NEAR COAST OF CENTRAL CH
    event name:  201509162254A
    time shift:     49.9800
    half duration:  33.4000
    latitude:      -31.1300
    longitude:     -72.0900
    depth:          17.3500
    Mrr:       1.950000e+28
    Mtt:      -4.360000e+26
    Mpp:      -1.910000e+28
    Mrt:       7.420000e+27
    Mrp:      -2.480000e+28
    Mtp:       9.420000e+26





.. GENERATED FROM PYTHON SOURCE LINES 35-36

Loading the subset database

.. GENERATED FROM PYTHON SOURCE LINES 36-40

.. code-block:: default


    gfsub = GFManager("../../DATA/single_element_read/single_element.h5")
    gfsub.load()





.. rst-class:: sphx-glr-script-out

 .. code-block:: none

    DEBUG:h5py._conv:Creating converter from 3 to 5




.. GENERATED FROM PYTHON SOURCE LINES 41-42

Load Observed Data and response files

.. GENERATED FROM PYTHON SOURCE LINES 42-45

.. code-block:: default

    raw = read("../../DATA/single_element_read/traces/*.sac")
    inv = read_inventory("../../DATA/single_element_read/station.xml")








.. GENERATED FROM PYTHON SOURCE LINES 46-49

Note that the data has been downloaded from IRIS previously, but it has not
been processed. Now, we can query the database for synthetic seismograms
corresponding to the observed ones.

.. GENERATED FROM PYTHON SOURCE LINES 51-55

.. code-block:: default


    rp = gfsub.get_seismograms(cmt)






.. rst-class:: sphx-glr-script-out

 .. code-block:: none

    DEBUG:GF:lat  -31.13, lon 287.90999999999997
    DEBUG:GF:theta 2.111164801823484, phi 5.024977449416873
    DEBUG:GF:depth  17350.0
    DEBUG:GF:RPLANET 6371000.0
    DEBUG:GF:elevation: -3413.2975000002125
    DEBUG:GF:ELL: 0.0033072689777778027, p20: -0.10300870804117834
    DEBUG:GF:rsource: {r0_source}
    DEBUG:GF:DOING ADJACENCY SEARCH
    DEBUG:GF:    Querying KDTree...
    DEBUG:GF:    ...Done
    DEBUG:GF:    Finding local coordinates...
    DEBUG:GF:Anchors
    DEBUG:GF:[0 0 2 2 0 0 2 2 0 1 2 1 0 0 2 2 0 1 2 1 1 0 1 2 1 1 1]
    DEBUG:GF:Element coordinates
    DEBUG:GF:x
    DEBUG:GF:[0.26720187 0.26908711 0.2588748  0.25702941 0.26813519 0.27003714
     0.25967503 0.25782475 0.26816329 0.26403755 0.25795895 0.26216379
     0.26766852 0.26956213 0.25927493 0.2574271  0.26910013 0.26487032
     0.25875697 0.2629908  0.26310906 0.26863173 0.26445395 0.25835794
     0.2625773  0.26393914 0.26352412]
    DEBUG:GF:y
    DEBUG:GF:[-0.80883157 -0.8145383  -0.81715912 -0.81133401 -0.81165677 -0.8174141
     -0.8196851  -0.81384456 -0.81174189 -0.81603009 -0.81426817 -0.81023908
     -0.8102442  -0.8159762  -0.81842214 -0.81258929 -0.81457776 -0.81860387
     -0.81678712 -0.81279504 -0.81316048 -0.81315982 -0.81731701 -0.81552762
     -0.81151706 -0.81572598 -0.81444323]
    DEBUG:GF:z
    DEBUG:GF:[-0.51218694 -0.50190377 -0.5035187  -0.51377159 -0.51397598 -0.50367582
     -0.50507516 -0.51536137 -0.50707871 -0.502823   -0.50865686 -0.51307821
     -0.51308149 -0.5027898  -0.5042969  -0.51456648 -0.50885028 -0.5044089
     -0.51023036 -0.51469678 -0.50796491 -0.50796449 -0.50361598 -0.50944364
     -0.51388752 -0.5095675  -0.50876623]
    DEBUG:GF: 
    DEBUG:GF:Initial Guess
    DEBUG:GF:-1.0, 0.0, 1.0
    DEBUG:GF:  
    DEBUG:GF:START: 0.2629070426208585, -0.813490403263229, -0.51289216395054
    DEBUG:GF:       -1.0, 0.0, 1.0
    DEBUG:GF:    iter 0: 0.262990802526474, -0.8127950429916382, -0.5146967768669128
    DEBUG:GF:                      -0.6787138520392472, 0.056043351792607346, 0.7526280383847199
    DEBUG:GF:    iter 1: 0.2629061241018552, -0.8134882435907334, -0.5128917212398123
    DEBUG:GF:                      -0.6785821307171366, 0.05600333384400605, 0.7540525490126836
    DEBUG:GF:    iter 2: 0.26290704262289866, -0.813490403267678, -0.5128921639513074
    DEBUG:GF:                      -0.6785821310092165, 0.05600333395328537, 0.7540525461026191
    DEBUG:GF:    iter 3: 0.2629070426208585, -0.8134904032632291, -0.51289216395054
    DEBUG:GF:                      -0.6785821310092265, 0.05600333395327886, 0.7540525461025608
    DEBUG:GF:    iter 4: 0.2629070426208585, -0.813490403263229, -0.51289216395054
    DEBUG:GF:                      -0.6785821310092265, 0.05600333395327886, 0.7540525461025608
    DEBUG:GF:    ...Done
    DEBUG:GF:    REALYY DOING THE ADJACENCY SEARCH
    DEBUG:GF:SEISUM: 0.0018361519527975096
    DEBUG:GF:Lengths: 970, 2048
    DEBUG:GF:Outputting traces




.. GENERATED FROM PYTHON SOURCE LINES 56-58

Then, we select the station in question and process both observed and
synthetics seismograms for a band-pass of [40-300].

.. GENERATED FROM PYTHON SOURCE LINES 58-66

.. code-block:: default


    network = 'II'
    station = 'BFO'
    obs = process_stream(
        raw.select(network=network, station=station), inv=inv, cmt=cmt, duration=3600)
    syn = process_stream(
        rp.select(network=network, station=station), cmt=cmt, duration=3600)








.. GENERATED FROM PYTHON SOURCE LINES 67-68

Set plot limits and plot seismogram

.. GENERATED FROM PYTHON SOURCE LINES 68-79

.. code-block:: default


    starttimeoffset = 500.0
    endtimeoffset = 0.0
    duration = 1000.0
    limits = \
        syn[0].stats.starttime + starttimeoffset, \
        syn[0].stats.starttime + starttimeoffset + duration + endtimeoffset

    plotseismogram(obs, syn, cmt, limits=limits)
    plt.show()




.. image-sg:: /examples/extraction/subset/images/sphx_glr_single_seismogram_001.svg
   :alt: single seismogram
   :srcset: /examples/extraction/subset/images/sphx_glr_single_seismogram_001.svg
   :class: sphx-glr-single-img


.. rst-class:: sphx-glr-script-out

 .. code-block:: none

    DEBUG:matplotlib.font_manager:findfont: Matching monospace:style=normal:variant=normal:weight=normal:stretch=normal:size=10.0.
    DEBUG:matplotlib.font_manager:findfont: score(FontEntry(fname='/usr/share/miniconda/envs/gf/lib/python3.11/site-packages/matplotlib/mpl-data/fonts/ttf/DejaVuSans-Bold.ttf', name='DejaVu Sans', style='normal', variant='normal', weight=700, stretch='normal', size='scalable')) = 10.335
    DEBUG:matplotlib.font_manager:findfont: score(FontEntry(fname='/usr/share/miniconda/envs/gf/lib/python3.11/site-packages/matplotlib/mpl-data/fonts/ttf/STIXSizTwoSymBol.ttf', name='STIXSizeTwoSym', style='normal', variant='normal', weight=700, stretch='normal', size='scalable')) = 10.335
    DEBUG:matplotlib.font_manager:findfont: score(FontEntry(fname='/usr/share/miniconda/envs/gf/lib/python3.11/site-packages/matplotlib/mpl-data/fonts/ttf/STIXSizOneSymReg.ttf', name='STIXSizeOneSym', style='normal', variant='normal', weight=400, stretch='normal', size='scalable')) = 10.05
    DEBUG:matplotlib.font_manager:findfont: score(FontEntry(fname='/usr/share/miniconda/envs/gf/lib/python3.11/site-packages/matplotlib/mpl-data/fonts/ttf/cmr10.ttf', name='cmr10', style='normal', variant='normal', weight=400, stretch='normal', size='scalable')) = 10.05
    DEBUG:matplotlib.font_manager:findfont: score(FontEntry(fname='/usr/share/miniconda/envs/gf/lib/python3.11/site-packages/matplotlib/mpl-data/fonts/ttf/DejaVuSerifDisplay.ttf', name='DejaVu Serif Display', style='normal', variant='normal', weight=400, stretch='normal', size='scalable')) = 10.05
    DEBUG:matplotlib.font_manager:findfont: score(FontEntry(fname='/usr/share/miniconda/envs/gf/lib/python3.11/site-packages/matplotlib/mpl-data/fonts/ttf/cmb10.ttf', name='cmb10', style='normal', variant='normal', weight=400, stretch='normal', size='scalable')) = 10.05
    DEBUG:matplotlib.font_manager:findfont: score(FontEntry(fname='/usr/share/miniconda/envs/gf/lib/python3.11/site-packages/matplotlib/mpl-data/fonts/ttf/DejaVuSansMono-Bold.ttf', name='DejaVu Sans Mono', style='normal', variant='normal', weight=700, stretch='normal', size='scalable')) = 0.33499999999999996
    DEBUG:matplotlib.font_manager:findfont: score(FontEntry(fname='/usr/share/miniconda/envs/gf/lib/python3.11/site-packages/matplotlib/mpl-data/fonts/ttf/STIXNonUni.ttf', name='STIXNonUnicode', style='normal', variant='normal', weight=400, stretch='normal', size='scalable')) = 10.05
    DEBUG:matplotlib.font_manager:findfont: score(FontEntry(fname='/usr/share/miniconda/envs/gf/lib/python3.11/site-packages/matplotlib/mpl-data/fonts/ttf/DejaVuSerif.ttf', name='DejaVu Serif', style='normal', variant='normal', weight=400, stretch='normal', size='scalable')) = 10.05
    DEBUG:matplotlib.font_manager:findfont: score(FontEntry(fname='/usr/share/miniconda/envs/gf/lib/python3.11/site-packages/matplotlib/mpl-data/fonts/ttf/DejaVuSerif-Bold.ttf', name='DejaVu Serif', style='normal', variant='normal', weight=700, stretch='normal', size='scalable')) = 10.335
    DEBUG:matplotlib.font_manager:findfont: score(FontEntry(fname='/usr/share/miniconda/envs/gf/lib/python3.11/site-packages/matplotlib/mpl-data/fonts/ttf/DejaVuSansMono.ttf', name='DejaVu Sans Mono', style='normal', variant='normal', weight=400, stretch='normal', size='scalable')) = 0.05
    DEBUG:matplotlib.font_manager:findfont: score(FontEntry(fname='/usr/share/miniconda/envs/gf/lib/python3.11/site-packages/matplotlib/mpl-data/fonts/ttf/DejaVuSans.ttf', name='DejaVu Sans', style='normal', variant='normal', weight=400, stretch='normal', size='scalable')) = 10.05
    DEBUG:matplotlib.font_manager:findfont: score(FontEntry(fname='/usr/share/miniconda/envs/gf/lib/python3.11/site-packages/matplotlib/mpl-data/fonts/ttf/STIXSizThreeSymReg.ttf', name='STIXSizeThreeSym', style='normal', variant='normal', weight=400, stretch='normal', size='scalable')) = 10.05
    DEBUG:matplotlib.font_manager:findfont: score(FontEntry(fname='/usr/share/miniconda/envs/gf/lib/python3.11/site-packages/matplotlib/mpl-data/fonts/ttf/STIXNonUniIta.ttf', name='STIXNonUnicode', style='italic', variant='normal', weight=400, stretch='normal', size='scalable')) = 11.05
    DEBUG:matplotlib.font_manager:findfont: score(FontEntry(fname='/usr/share/miniconda/envs/gf/lib/python3.11/site-packages/matplotlib/mpl-data/fonts/ttf/STIXGeneral.ttf', name='STIXGeneral', style='normal', variant='normal', weight=400, stretch='normal', size='scalable')) = 10.05
    DEBUG:matplotlib.font_manager:findfont: score(FontEntry(fname='/usr/share/miniconda/envs/gf/lib/python3.11/site-packages/matplotlib/mpl-data/fonts/ttf/DejaVuSans-Oblique.ttf', name='DejaVu Sans', style='oblique', variant='normal', weight=400, stretch='normal', size='scalable')) = 11.05
    DEBUG:matplotlib.font_manager:findfont: score(FontEntry(fname='/usr/share/miniconda/envs/gf/lib/python3.11/site-packages/matplotlib/mpl-data/fonts/ttf/STIXSizFourSymBol.ttf', name='STIXSizeFourSym', style='normal', variant='normal', weight=700, stretch='normal', size='scalable')) = 10.335
    DEBUG:matplotlib.font_manager:findfont: score(FontEntry(fname='/usr/share/miniconda/envs/gf/lib/python3.11/site-packages/matplotlib/mpl-data/fonts/ttf/STIXSizThreeSymBol.ttf', name='STIXSizeThreeSym', style='normal', variant='normal', weight=700, stretch='normal', size='scalable')) = 10.335
    DEBUG:matplotlib.font_manager:findfont: score(FontEntry(fname='/usr/share/miniconda/envs/gf/lib/python3.11/site-packages/matplotlib/mpl-data/fonts/ttf/cmsy10.ttf', name='cmsy10', style='normal', variant='normal', weight=400, stretch='normal', size='scalable')) = 10.05
    DEBUG:matplotlib.font_manager:findfont: score(FontEntry(fname='/usr/share/miniconda/envs/gf/lib/python3.11/site-packages/matplotlib/mpl-data/fonts/ttf/cmss10.ttf', name='cmss10', style='normal', variant='normal', weight=400, stretch='normal', size='scalable')) = 10.05
    DEBUG:matplotlib.font_manager:findfont: score(FontEntry(fname='/usr/share/miniconda/envs/gf/lib/python3.11/site-packages/matplotlib/mpl-data/fonts/ttf/STIXNonUniBolIta.ttf', name='STIXNonUnicode', style='italic', variant='normal', weight=700, stretch='normal', size='scalable')) = 11.335
    DEBUG:matplotlib.font_manager:findfont: score(FontEntry(fname='/usr/share/miniconda/envs/gf/lib/python3.11/site-packages/matplotlib/mpl-data/fonts/ttf/DejaVuSansMono-Oblique.ttf', name='DejaVu Sans Mono', style='oblique', variant='normal', weight=400, stretch='normal', size='scalable')) = 1.05
    DEBUG:matplotlib.font_manager:findfont: score(FontEntry(fname='/usr/share/miniconda/envs/gf/lib/python3.11/site-packages/matplotlib/mpl-data/fonts/ttf/DejaVuSans-BoldOblique.ttf', name='DejaVu Sans', style='oblique', variant='normal', weight=700, stretch='normal', size='scalable')) = 11.335
    DEBUG:matplotlib.font_manager:findfont: score(FontEntry(fname='/usr/share/miniconda/envs/gf/lib/python3.11/site-packages/matplotlib/mpl-data/fonts/ttf/DejaVuSerif-BoldItalic.ttf', name='DejaVu Serif', style='italic', variant='normal', weight=700, stretch='normal', size='scalable')) = 11.335
    DEBUG:matplotlib.font_manager:findfont: score(FontEntry(fname='/usr/share/miniconda/envs/gf/lib/python3.11/site-packages/matplotlib/mpl-data/fonts/ttf/cmex10.ttf', name='cmex10', style='normal', variant='normal', weight=400, stretch='normal', size='scalable')) = 10.05
    DEBUG:matplotlib.font_manager:findfont: score(FontEntry(fname='/usr/share/miniconda/envs/gf/lib/python3.11/site-packages/matplotlib/mpl-data/fonts/ttf/STIXSizOneSymBol.ttf', name='STIXSizeOneSym', style='normal', variant='normal', weight=700, stretch='normal', size='scalable')) = 10.335
    DEBUG:matplotlib.font_manager:findfont: score(FontEntry(fname='/usr/share/miniconda/envs/gf/lib/python3.11/site-packages/matplotlib/mpl-data/fonts/ttf/STIXSizFiveSymReg.ttf', name='STIXSizeFiveSym', style='normal', variant='normal', weight=400, stretch='normal', size='scalable')) = 10.05
    DEBUG:matplotlib.font_manager:findfont: score(FontEntry(fname='/usr/share/miniconda/envs/gf/lib/python3.11/site-packages/matplotlib/mpl-data/fonts/ttf/STIXGeneralBol.ttf', name='STIXGeneral', style='normal', variant='normal', weight=700, stretch='normal', size='scalable')) = 10.335
    DEBUG:matplotlib.font_manager:findfont: score(FontEntry(fname='/usr/share/miniconda/envs/gf/lib/python3.11/site-packages/matplotlib/mpl-data/fonts/ttf/STIXGeneralItalic.ttf', name='STIXGeneral', style='italic', variant='normal', weight=400, stretch='normal', size='scalable')) = 11.05
    DEBUG:matplotlib.font_manager:findfont: score(FontEntry(fname='/usr/share/miniconda/envs/gf/lib/python3.11/site-packages/matplotlib/mpl-data/fonts/ttf/DejaVuSansDisplay.ttf', name='DejaVu Sans Display', style='normal', variant='normal', weight=400, stretch='normal', size='scalable')) = 10.05
    DEBUG:matplotlib.font_manager:findfont: score(FontEntry(fname='/usr/share/miniconda/envs/gf/lib/python3.11/site-packages/matplotlib/mpl-data/fonts/ttf/STIXSizTwoSymReg.ttf', name='STIXSizeTwoSym', style='normal', variant='normal', weight=400, stretch='normal', size='scalable')) = 10.05
    DEBUG:matplotlib.font_manager:findfont: score(FontEntry(fname='/usr/share/miniconda/envs/gf/lib/python3.11/site-packages/matplotlib/mpl-data/fonts/ttf/DejaVuSerif-Italic.ttf', name='DejaVu Serif', style='italic', variant='normal', weight=400, stretch='normal', size='scalable')) = 11.05
    DEBUG:matplotlib.font_manager:findfont: score(FontEntry(fname='/usr/share/miniconda/envs/gf/lib/python3.11/site-packages/matplotlib/mpl-data/fonts/ttf/cmtt10.ttf', name='cmtt10', style='normal', variant='normal', weight=400, stretch='normal', size='scalable')) = 10.05
    DEBUG:matplotlib.font_manager:findfont: score(FontEntry(fname='/usr/share/miniconda/envs/gf/lib/python3.11/site-packages/matplotlib/mpl-data/fonts/ttf/DejaVuSansMono-BoldOblique.ttf', name='DejaVu Sans Mono', style='oblique', variant='normal', weight=700, stretch='normal', size='scalable')) = 1.335
    DEBUG:matplotlib.font_manager:findfont: score(FontEntry(fname='/usr/share/miniconda/envs/gf/lib/python3.11/site-packages/matplotlib/mpl-data/fonts/ttf/STIXNonUniBol.ttf', name='STIXNonUnicode', style='normal', variant='normal', weight=700, stretch='normal', size='scalable')) = 10.335
    DEBUG:matplotlib.font_manager:findfont: score(FontEntry(fname='/usr/share/miniconda/envs/gf/lib/python3.11/site-packages/matplotlib/mpl-data/fonts/ttf/cmmi10.ttf', name='cmmi10', style='normal', variant='normal', weight=400, stretch='normal', size='scalable')) = 10.05
    DEBUG:matplotlib.font_manager:findfont: score(FontEntry(fname='/usr/share/miniconda/envs/gf/lib/python3.11/site-packages/matplotlib/mpl-data/fonts/ttf/STIXGeneralBolIta.ttf', name='STIXGeneral', style='italic', variant='normal', weight=700, stretch='normal', size='scalable')) = 11.335
    DEBUG:matplotlib.font_manager:findfont: score(FontEntry(fname='/usr/share/miniconda/envs/gf/lib/python3.11/site-packages/matplotlib/mpl-data/fonts/ttf/STIXSizFourSymReg.ttf', name='STIXSizeFourSym', style='normal', variant='normal', weight=400, stretch='normal', size='scalable')) = 10.05
    DEBUG:matplotlib.font_manager:findfont: score(FontEntry(fname='/usr/share/fonts/truetype/lato/Lato-Light.ttf', name='Lato', style='normal', variant='normal', weight=300, stretch='normal', size='scalable')) = 10.145
    DEBUG:matplotlib.font_manager:findfont: score(FontEntry(fname='/usr/share/fonts/truetype/liberation/LiberationSansNarrow-Regular.ttf', name='Liberation Sans Narrow', style='normal', variant='normal', weight=400, stretch='condensed', size='scalable')) = 10.25
    DEBUG:matplotlib.font_manager:findfont: score(FontEntry(fname='/usr/share/fonts/truetype/dejavu/DejaVuSansCondensed-Bold.ttf', name='DejaVu Sans', style='normal', variant='normal', weight=700, stretch='condensed', size='scalable')) = 10.535
    DEBUG:matplotlib.font_manager:findfont: score(FontEntry(fname='/usr/share/miniconda/envs/gf/fonts/SourceCodePro-ExtraLightIt.ttf', name='Source Code Pro', style='italic', variant='normal', weight=200, stretch='normal', size='scalable')) = 11.24
    DEBUG:matplotlib.font_manager:findfont: score(FontEntry(fname='/usr/share/fonts/truetype/lato/Lato-Bold.ttf', name='Lato', style='normal', variant='normal', weight=700, stretch='normal', size='scalable')) = 10.335
    DEBUG:matplotlib.font_manager:findfont: score(FontEntry(fname='/usr/share/miniconda/envs/gf/fonts/Ubuntu-C.ttf', name='Ubuntu Condensed', style='normal', variant='normal', weight=400, stretch='condensed', size='scalable')) = 10.25
    DEBUG:matplotlib.font_manager:findfont: score(FontEntry(fname='/usr/share/miniconda/envs/gf/fonts/SourceCodePro-Bold.ttf', name='Source Code Pro', style='normal', variant='normal', weight=700, stretch='normal', size='scalable')) = 10.335
    DEBUG:matplotlib.font_manager:findfont: score(FontEntry(fname='/usr/share/fonts/truetype/dejavu/DejaVuSerifCondensed-BoldItalic.ttf', name='DejaVu Serif', style='italic', variant='normal', weight=700, stretch='condensed', size='scalable')) = 11.535
    DEBUG:matplotlib.font_manager:findfont: score(FontEntry(fname='/usr/share/fonts/truetype/dejavu/DejaVuSerif-Bold.ttf', name='DejaVu Serif', style='normal', variant='normal', weight=700, stretch='normal', size='scalable')) = 10.335
    DEBUG:matplotlib.font_manager:findfont: score(FontEntry(fname='/usr/share/fonts/truetype/liberation/LiberationSansNarrow-Italic.ttf', name='Liberation Sans Narrow', style='italic', variant='normal', weight=400, stretch='condensed', size='scalable')) = 11.25
    DEBUG:matplotlib.font_manager:findfont: score(FontEntry(fname='/usr/share/fonts/truetype/liberation/LiberationSerif-Italic.ttf', name='Liberation Serif', style='italic', variant='normal', weight=400, stretch='normal', size='scalable')) = 11.05
    DEBUG:matplotlib.font_manager:findfont: score(FontEntry(fname='/usr/share/fonts/truetype/lato/Lato-SemiboldItalic.ttf', name='Lato', style='italic', variant='normal', weight=600, stretch='normal', size='scalable')) = 11.24
    DEBUG:matplotlib.font_manager:findfont: score(FontEntry(fname='/usr/share/fonts/truetype/dejavu/DejaVuSans-BoldOblique.ttf', name='DejaVu Sans', style='oblique', variant='normal', weight=700, stretch='normal', size='scalable')) = 11.335
    DEBUG:matplotlib.font_manager:findfont: score(FontEntry(fname='/usr/share/fonts/truetype/liberation/LiberationSansNarrow-Bold.ttf', name='Liberation Sans Narrow', style='normal', variant='normal', weight=700, stretch='condensed', size='scalable')) = 10.535
    DEBUG:matplotlib.font_manager:findfont: score(FontEntry(fname='/usr/share/miniconda/envs/gf/fonts/SourceCodePro-It.ttf', name='Source Code Pro', style='italic', variant='normal', weight=400, stretch='normal', size='scalable')) = 11.05
    DEBUG:matplotlib.font_manager:findfont: score(FontEntry(fname='/usr/share/fonts/truetype/lato/Lato-Black.ttf', name='Lato', style='normal', variant='normal', weight=900, stretch='normal', size='scalable')) = 10.525
    DEBUG:matplotlib.font_manager:findfont: score(FontEntry(fname='/usr/share/fonts/truetype/lato/Lato-MediumItalic.ttf', name='Lato', style='italic', variant='normal', weight=500, stretch='normal', size='scalable')) = 11.145
    DEBUG:matplotlib.font_manager:findfont: score(FontEntry(fname='/usr/share/fonts/truetype/liberation/LiberationSans-Italic.ttf', name='Liberation Sans', style='italic', variant='normal', weight=400, stretch='normal', size='scalable')) = 11.05
    DEBUG:matplotlib.font_manager:findfont: score(FontEntry(fname='/usr/share/fonts/truetype/lato/Lato-HeavyItalic.ttf', name='Lato', style='italic', variant='normal', weight=800, stretch='normal', size='scalable')) = 11.43
    DEBUG:matplotlib.font_manager:findfont: score(FontEntry(fname='/usr/share/miniconda/envs/gf/fonts/UbuntuMono-R.ttf', name='Ubuntu Mono', style='normal', variant='normal', weight=400, stretch='normal', size='scalable')) = 10.05
    DEBUG:matplotlib.font_manager:findfont: score(FontEntry(fname='/usr/share/fonts/truetype/lato/Lato-Heavy.ttf', name='Lato', style='normal', variant='normal', weight=800, stretch='normal', size='scalable')) = 10.43
    DEBUG:matplotlib.font_manager:findfont: score(FontEntry(fname='/usr/share/fonts/truetype/lato/Lato-HairlineItalic.ttf', name='Lato', style='italic', variant='normal', weight=100, stretch='normal', size='scalable')) = 11.335
    DEBUG:matplotlib.font_manager:findfont: score(FontEntry(fname='/usr/share/fonts/truetype/liberation/LiberationSerif-Bold.ttf', name='Liberation Serif', style='normal', variant='normal', weight=700, stretch='normal', size='scalable')) = 10.335
    DEBUG:matplotlib.font_manager:findfont: score(FontEntry(fname='/usr/share/miniconda/envs/gf/fonts/Ubuntu-RI.ttf', name='Ubuntu', style='italic', variant='normal', weight=400, stretch='normal', size='scalable')) = 11.05
    DEBUG:matplotlib.font_manager:findfont: score(FontEntry(fname='/usr/share/miniconda/envs/gf/fonts/Ubuntu-MI.ttf', name='Ubuntu', style='italic', variant='normal', weight=500, stretch='normal', size='scalable')) = 11.145
    DEBUG:matplotlib.font_manager:findfont: score(FontEntry(fname='/usr/share/fonts/truetype/lato/Lato-Regular.ttf', name='Lato', style='normal', variant='normal', weight=400, stretch='normal', size='scalable')) = 10.05
    DEBUG:matplotlib.font_manager:findfont: score(FontEntry(fname='/usr/share/miniconda/envs/gf/fonts/SourceCodePro-ExtraLight.ttf', name='Source Code Pro', style='normal', variant='normal', weight=200, stretch='normal', size='scalable')) = 10.24
    DEBUG:matplotlib.font_manager:findfont: score(FontEntry(fname='/usr/share/miniconda/envs/gf/fonts/DejaVuSans.ttf', name='DejaVu Sans', style='normal', variant='normal', weight=400, stretch='normal', size='scalable')) = 10.05
    DEBUG:matplotlib.font_manager:findfont: score(FontEntry(fname='/usr/share/fonts/truetype/dejavu/DejaVuSans-Bold.ttf', name='DejaVu Sans', style='normal', variant='normal', weight=700, stretch='normal', size='scalable')) = 10.335
    DEBUG:matplotlib.font_manager:findfont: score(FontEntry(fname='/usr/share/miniconda/envs/gf/fonts/Ubuntu-BI.ttf', name='Ubuntu', style='italic', variant='normal', weight=700, stretch='normal', size='scalable')) = 11.335
    DEBUG:matplotlib.font_manager:findfont: score(FontEntry(fname='/usr/share/fonts/truetype/lato/Lato-Semibold.ttf', name='Lato', style='normal', variant='normal', weight=600, stretch='normal', size='scalable')) = 10.24
    DEBUG:matplotlib.font_manager:findfont: score(FontEntry(fname='/usr/share/fonts/truetype/liberation/LiberationSans-Regular.ttf', name='Liberation Sans', style='normal', variant='normal', weight=400, stretch='normal', size='scalable')) = 10.05
    DEBUG:matplotlib.font_manager:findfont: score(FontEntry(fname='/usr/share/fonts/truetype/liberation/LiberationMono-Regular.ttf', name='Liberation Mono', style='normal', variant='normal', weight=400, stretch='normal', size='scalable')) = 10.05
    DEBUG:matplotlib.font_manager:findfont: score(FontEntry(fname='/usr/share/miniconda/envs/gf/fonts/SourceCodePro-SemiboldIt.ttf', name='Source Code Pro', style='italic', variant='normal', weight=600, stretch='normal', size='scalable')) = 11.24
    DEBUG:matplotlib.font_manager:findfont: score(FontEntry(fname='/usr/share/miniconda/envs/gf/fonts/Ubuntu-B.ttf', name='Ubuntu', style='normal', variant='normal', weight=700, stretch='normal', size='scalable')) = 10.335
    DEBUG:matplotlib.font_manager:findfont: score(FontEntry(fname='/usr/share/miniconda/envs/gf/fonts/SourceCodePro-BoldIt.ttf', name='Source Code Pro', style='italic', variant='normal', weight=700, stretch='normal', size='scalable')) = 11.335
    DEBUG:matplotlib.font_manager:findfont: score(FontEntry(fname='/usr/share/miniconda/envs/gf/fonts/Ubuntu-LI.ttf', name='Ubuntu', style='italic', variant='normal', weight=300, stretch='normal', size='scalable')) = 11.145
    DEBUG:matplotlib.font_manager:findfont: score(FontEntry(fname='/usr/share/fonts/truetype/dejavu/DejaVuSansMono-BoldOblique.ttf', name='DejaVu Sans Mono', style='oblique', variant='normal', weight=700, stretch='normal', size='scalable')) = 1.335
    DEBUG:matplotlib.font_manager:findfont: score(FontEntry(fname='/usr/share/miniconda/envs/gf/fonts/SourceCodePro-BlackIt.ttf', name='Source Code Pro', style='italic', variant='normal', weight=900, stretch='normal', size='scalable')) = 11.525
    DEBUG:matplotlib.font_manager:findfont: score(FontEntry(fname='/usr/share/fonts/truetype/lato/Lato-Medium.ttf', name='Lato', style='normal', variant='normal', weight=500, stretch='normal', size='scalable')) = 10.145
    DEBUG:matplotlib.font_manager:findfont: score(FontEntry(fname='/usr/share/fonts/truetype/liberation/LiberationSerif-BoldItalic.ttf', name='Liberation Serif', style='italic', variant='normal', weight=700, stretch='normal', size='scalable')) = 11.335
    DEBUG:matplotlib.font_manager:findfont: score(FontEntry(fname='/usr/share/miniconda/envs/gf/fonts/Ubuntu-Th.ttf', name='Ubuntu', style='normal', variant='normal', weight=250, stretch='normal', size='scalable')) = 10.1925
    DEBUG:matplotlib.font_manager:findfont: score(FontEntry(fname='/usr/share/miniconda/envs/gf/fonts/Inconsolata-Regular.ttf', name='Inconsolata', style='normal', variant='normal', weight=400, stretch='normal', size='scalable')) = 10.05
    DEBUG:matplotlib.font_manager:findfont: score(FontEntry(fname='/usr/share/fonts/truetype/liberation/LiberationSans-Bold.ttf', name='Liberation Sans', style='normal', variant='normal', weight=700, stretch='normal', size='scalable')) = 10.335
    DEBUG:matplotlib.font_manager:findfont: score(FontEntry(fname='/usr/share/fonts/truetype/dejavu/DejaVuSansCondensed.ttf', name='DejaVu Sans', style='normal', variant='normal', weight=400, stretch='condensed', size='scalable')) = 10.25
    DEBUG:matplotlib.font_manager:findfont: score(FontEntry(fname='/usr/share/fonts/truetype/dejavu/DejaVuSerif.ttf', name='DejaVu Serif', style='normal', variant='normal', weight=400, stretch='normal', size='scalable')) = 10.05
    DEBUG:matplotlib.font_manager:findfont: score(FontEntry(fname='/usr/share/miniconda/envs/gf/fonts/SourceCodePro-Medium.ttf', name='Source Code Pro', style='normal', variant='normal', weight=500, stretch='normal', size='scalable')) = 10.145
    DEBUG:matplotlib.font_manager:findfont: score(FontEntry(fname='/usr/share/fonts/truetype/dejavu/DejaVuSerif-BoldItalic.ttf', name='DejaVu Serif', style='italic', variant='normal', weight=700, stretch='normal', size='scalable')) = 11.335
    DEBUG:matplotlib.font_manager:findfont: score(FontEntry(fname='/usr/share/fonts/truetype/lato/Lato-Italic.ttf', name='Lato', style='italic', variant='normal', weight=400, stretch='normal', size='scalable')) = 11.05